
     RDKit          3D

 42 48  0  0  0  0  0  0  0  0999 V2000
   -5.6300  -10.5780    4.2150 C   0  0  0  0  0  0  0  0  0  0  0  0
   -6.1320  -11.9190    4.3160 N   0  0  0  0  0  0  0  0  0  0  0  0
   -7.5470  -12.1260    3.9720 C   0  0  2  0  0  0  0  0  0  0  0  0
   -8.4690  -11.0440    4.4800 C   0  0  0  0  0  0  0  0  0  0  0  0
   -8.9790  -12.0470    5.5940 C   0  0  0  0  0  0  0  0  0  0  0  0
   -8.1620  -13.1170    4.9230 C   0  0  0  0  0  0  0  0  0  0  0  0
   -7.8280  -12.4750    2.5420 C   0  0  0  0  0  0  0  0  0  0  0  0
   -7.9160  -11.3100    1.7180 N   0  0  0  0  0  0  0  0  0  0  0  0
   -7.2000  -11.2080    0.5880 C   0  0  0  0  0  0  0  0  0  0  0  0
   -7.3820  -10.1610   -0.3330 C   0  0  0  0  0  0  0  0  0  0  0  0
   -6.5910  -10.1640   -1.4870 C   0  0  0  0  0  0  0  0  0  0  0  0
   -5.6750  -11.1570   -1.6940 N   0  0  0  0  0  0  0  0  0  0  0  0
   -5.5660  -12.1130   -0.8000 C   0  0  0  0  0  0  0  0  0  0  0  0
   -6.3040  -12.1470    0.3270 N   0  0  0  0  0  0  0  0  0  0  0  0
   -4.6740  -13.1080   -1.0380 O   0  0  0  0  0  0  0  0  0  0  0  0
   -4.6500  -14.1820   -0.1270 C   0  0  0  0  0  0  0  0  0  0  0  0
   -3.7600  -15.2650   -0.7240 C   0  0  1  0  0  0  0  0  0  0  0  0
   -3.8220  -16.5240    0.0890 C   0  0  0  0  0  0  0  0  0  0  0  0
   -4.7330  -17.4200   -0.6470 C   0  0  0  0  0  0  0  0  0  0  0  0
   -4.5120  -17.0480   -2.0780 C   0  0  0  0  0  0  0  0  0  0  0  0
   -4.2130  -15.6320   -2.0680 N   0  0  0  0  0  0  0  0  0  0  0  0
   -3.1700  -15.2590   -2.9900 C   0  0  0  0  0  0  0  0  0  0  0  0
   -1.9160  -15.2830   -2.1630 C   0  0  2  0  0  0  0  0  0  0  0  0
   -2.3370  -14.7940   -0.8520 C   0  0  0  0  0  0  0  0  0  0  0  0
   -0.9340  -14.4870   -2.7140 F   0  0  0  0  0  0  0  0  0  0  0  0
   -6.7860   -9.1630   -2.4350 C   0  0  0  0  0  0  0  0  0  0  0  0
   -7.7400   -8.1760   -2.2130 C   0  0  0  0  0  0  0  0  0  0  0  0
   -8.4630   -8.1810   -1.0810 N   0  0  0  0  0  0  0  0  0  0  0  0
   -8.3190   -9.1380   -0.1550 C   0  0  0  0  0  0  0  0  0  0  0  0
   -8.0030   -7.1360   -3.2100 C   0  0  0  0  0  0  0  0  0  0  0  0
   -9.2560   -7.1260   -3.7670 C   0  0  0  0  0  0  0  0  0  0  0  0
   -9.5730   -6.1990   -4.7680 C   0  0  0  0  0  0  0  0  0  0  0  0
   -8.6400   -5.2820   -5.2100 C   0  0  0  0  0  0  0  0  0  0  0  0
   -7.3550   -5.2730   -4.6360 C   0  0  0  0  0  0  0  0  0  0  0  0
   -6.3710   -4.3420   -5.0520 C   0  0  0  0  0  0  0  0  0  0  0  0
   -5.1270   -4.3400   -4.4990 C   0  0  0  0  0  0  0  0  0  0  0  0
   -4.8030   -5.2680   -3.4990 C   0  0  0  0  0  0  0  0  0  0  0  0
   -5.7290   -6.1660   -3.0690 C   0  0  0  0  0  0  0  0  0  0  0  0
   -7.0280   -6.2110   -3.6180 C   0  0  0  0  0  0  0  0  0  0  0  0
  -10.8260   -6.2170   -5.2880 O   0  0  0  0  0  0  0  0  0  0  0  0
   -6.0570   -9.1670   -3.5300 F   0  0  0  0  0  0  0  0  0  0  0  0
   -5.2330  -12.9490    3.8610 C   0  0  0  0  0  0  0  0  0  0  0  0
  2  1  1  0
  3  2  1  0
  4  3  1  0
  5  4  1  0
  6  3  1  0
  6  5  1  0
  3  7  1  6
  8  7  1  0
  9  8  1  0
 10  9  1  0
 11 10  1  0
 12 11  1  0
 13 12  1  0
 14 13  1  0
 14  9  1  0
 15 13  1  0
 16 15  1  0
 17 16  1  1
 18 17  1  0
 19 18  1  0
 20 19  1  0
 21 20  1  0
 21 17  1  0
 22 21  1  0
 23 22  1  0
 24 23  1  0
 24 17  1  0
 23 25  1  6
 26 11  1  0
 27 26  1  0
 28 27  1  0
 29 28  1  0
 29 10  1  0
 30 27  1  0
 31 30  1  0
 32 31  1  0
 33 32  1  0
 34 33  1  0
 35 34  1  0
 36 35  1  0
 37 36  1  0
 38 37  1  0
 39 38  1  0
 39 30  1  0
 39 34  1  0
 40 32  1  0
 41 26  1  0
 42  2  1  0
M  END
$$$$
